Version 4
SHEET 1 1624 680
WIRE 1056 -80 1056 -112
WIRE 192 -64 192 -96
WIRE 1056 64 1056 0
WIRE 192 80 192 16
WIRE 992 112 864 112
WIRE 128 128 0 128
WIRE 864 160 864 112
WIRE 0 176 0 128
WIRE 1056 208 1056 160
WIRE 192 224 192 176
WIRE 1056 352 1056 288
WIRE 192 368 192 304
FLAG 0 176 0
FLAG 192 368 0
FLAG 192 -96 0
FLAG 864 160 0
FLAG 1056 352 0
FLAG 1056 -112 0
SYMBOL npn 128 80 R0
SYMATTR InstName Q1
SYMATTR Value 2N2222
SYMBOL voltage 192 32 R180
WINDOW 0 24 96 Left 2
WINDOW 3 24 16 Left 2
WINDOW 123 0 0 Left 2
WINDOW 39 0 0 Left 2
SYMATTR InstName V1
SYMATTR Value 0
SYMBOL voltage 192 320 R180
WINDOW 0 24 96 Left 2
WINDOW 3 24 16 Left 2
WINDOW 123 0 0 Left 2
WINDOW 39 0 0 Left 2
SYMATTR InstName V2
SYMATTR Value 0
SYMBOL npn 992 64 R0
SYMATTR InstName Q2
SYMATTR Value 2N2222
SYMBOL voltage 1056 16 R180
WINDOW 0 24 96 Left 2
WINDOW 3 24 16 Left 2
WINDOW 123 0 0 Left 2
WINDOW 39 0 0 Left 2
SYMATTR InstName V3
SYMATTR Value 0
SYMBOL current 1056 208 R0
WINDOW 123 0 0 Left 2
WINDOW 39 0 0 Left 2
SYMATTR InstName I1
SYMATTR Value 0
TEXT -24 392 Left 2 !.dc V2 0 10 0.01 V1 0 10 1
TEXT -16 -224 Left 2 ;INPUT CHARACTERISTICS
TEXT -104 -192 Left 2 ;IE vs VBE with varying VCB fron 0-10V with 1V step
TEXT 840 376 Left 2 !;dc V3 -2 10 0.01 I1 10E-3 100E-3 10E-3
TEXT 760 -208 Left 2 ;IC vs VCB with varying IB fron 10mA to 100mA with a step of 10mA
TEXT 984 -232 Left 2 ;OUTPUT CHARACTERISITICS
TEXT 472 -472 Left 2 ;VISHWAS VASUKI GAUTAM 2019A3PS0443H
